Version 4
SHEET 1 5940 680
WIRE 0 -288 -272 -288
WIRE 128 -288 0 -288
WIRE 576 -288 128 -288
WIRE 704 -288 576 -288
WIRE 1200 -288 704 -288
WIRE 1328 -288 1200 -288
WIRE 1744 -288 1328 -288
WIRE 1872 -288 1744 -288
WIRE 2368 -288 1872 -288
WIRE 2496 -288 2368 -288
WIRE 2912 -288 2496 -288
WIRE 3040 -288 2912 -288
WIRE 3536 -288 3040 -288
WIRE 3664 -288 3536 -288
WIRE 4080 -288 3664 -288
WIRE 4208 -288 4080 -288
WIRE 4704 -288 4208 -288
WIRE 4832 -288 4704 -288
WIRE 5344 -288 4832 -288
WIRE 5472 -288 5344 -288
WIRE 0 -256 0 -288
WIRE 576 -256 576 -288
WIRE 1200 -256 1200 -288
WIRE 1744 -256 1744 -288
WIRE 2368 -256 2368 -288
WIRE 2912 -256 2912 -288
WIRE 3536 -256 3536 -288
WIRE 4080 -256 4080 -288
WIRE 4704 -256 4704 -288
WIRE 5344 -256 5344 -288
WIRE -1712 -240 -1856 -240
WIRE 128 -240 128 -288
WIRE 704 -240 704 -288
WIRE 1328 -240 1328 -288
WIRE 1872 -240 1872 -288
WIRE 2496 -240 2496 -288
WIRE 3040 -240 3040 -288
WIRE 3664 -240 3664 -288
WIRE 4208 -240 4208 -288
WIRE 4832 -240 4832 -288
WIRE 5472 -240 5472 -288
WIRE -1712 -208 -1712 -240
WIRE -864 -192 -1168 -192
WIRE -528 -192 -864 -192
WIRE -1168 -176 -1168 -192
WIRE 0 -176 0 -192
WIRE 576 -176 576 -192
WIRE 1200 -176 1200 -192
WIRE 1744 -176 1744 -192
WIRE 2368 -176 2368 -192
WIRE 2912 -176 2912 -192
WIRE 3536 -176 3536 -192
WIRE 4080 -176 4080 -192
WIRE 4704 -176 4704 -192
WIRE 5344 -176 5344 -192
WIRE -864 -160 -864 -192
WIRE 128 -128 128 -160
WIRE 704 -128 704 -160
WIRE 1328 -128 1328 -160
WIRE 1872 -128 1872 -160
WIRE 2496 -128 2496 -160
WIRE 3040 -128 3040 -160
WIRE 3664 -128 3664 -160
WIRE 4208 -128 4208 -160
WIRE 4832 -128 4832 -160
WIRE 5472 -128 5472 -160
WIRE -1856 -96 -1856 -240
WIRE 0 -80 0 -112
WIRE 64 -80 0 -80
WIRE 576 -80 576 -112
WIRE 640 -80 576 -80
WIRE 1200 -80 1200 -112
WIRE 1264 -80 1200 -80
WIRE 1744 -80 1744 -112
WIRE 1808 -80 1744 -80
WIRE 2368 -80 2368 -112
WIRE 2432 -80 2368 -80
WIRE 2912 -80 2912 -112
WIRE 2976 -80 2912 -80
WIRE 3536 -80 3536 -112
WIRE 3600 -80 3536 -80
WIRE 4080 -80 4080 -112
WIRE 4144 -80 4080 -80
WIRE 4704 -80 4704 -112
WIRE 4768 -80 4704 -80
WIRE 5344 -80 5344 -112
WIRE 5408 -80 5344 -80
WIRE -528 -64 -528 -192
WIRE -864 -48 -864 -80
WIRE -576 -48 -864 -48
WIRE 0 -48 0 -80
WIRE 576 -48 576 -80
WIRE 1200 -48 1200 -80
WIRE 1744 -48 1744 -80
WIRE 2368 -48 2368 -80
WIRE 2912 -48 2912 -80
WIRE 3536 -48 3536 -80
WIRE 4080 -48 4080 -80
WIRE 4704 -48 4704 -80
WIRE 5344 -48 5344 -80
WIRE -864 0 -864 -48
WIRE -1856 16 -1856 -16
WIRE -1744 16 -1856 16
WIRE -1696 16 -1744 16
WIRE -1856 32 -1856 16
WIRE -1744 32 -1744 16
WIRE -1616 32 -1616 16
WIRE -3152 80 -3264 80
WIRE -2864 80 -3152 80
WIRE -2432 80 -2480 80
WIRE -2192 80 -2432 80
WIRE -2096 80 -2192 80
WIRE -2032 80 -2096 80
WIRE -1920 80 -1952 80
WIRE -2432 96 -2432 80
WIRE -2096 96 -2096 80
WIRE -1744 112 -1744 96
WIRE 128 112 128 -32
WIRE 240 112 128 112
WIRE 320 112 240 112
WIRE 704 112 704 -32
WIRE 816 112 704 112
WIRE 896 112 816 112
WIRE 1328 112 1328 -32
WIRE 1440 112 1328 112
WIRE 1520 112 1440 112
WIRE 1872 112 1872 -32
WIRE 1984 112 1872 112
WIRE 2064 112 1984 112
WIRE 2496 112 2496 -32
WIRE 2608 112 2496 112
WIRE 2688 112 2608 112
WIRE 3040 112 3040 -32
WIRE 3152 112 3040 112
WIRE 3232 112 3152 112
WIRE 3664 112 3664 -32
WIRE 3776 112 3664 112
WIRE 3856 112 3776 112
WIRE 4208 112 4208 -32
WIRE 4320 112 4208 112
WIRE 4400 112 4320 112
WIRE 4832 112 4832 -32
WIRE 4944 112 4832 112
WIRE 5024 112 4944 112
WIRE 5472 112 5472 -32
WIRE 5584 112 5472 112
WIRE 5664 112 5584 112
WIRE -1856 144 -1856 128
WIRE 240 144 240 112
WIRE 320 144 320 112
WIRE 816 144 816 112
WIRE 896 144 896 112
WIRE 1440 144 1440 112
WIRE 1520 144 1520 112
WIRE 1984 144 1984 112
WIRE 2064 144 2064 112
WIRE 2608 144 2608 112
WIRE 2688 144 2688 112
WIRE 3152 144 3152 112
WIRE 3232 144 3232 112
WIRE 3776 144 3776 112
WIRE 3856 144 3856 112
WIRE 4320 144 4320 112
WIRE 4400 144 4400 112
WIRE 4944 144 4944 112
WIRE 5024 144 5024 112
WIRE 5584 144 5584 112
WIRE 5664 144 5664 112
WIRE -528 160 -528 32
WIRE -272 160 -272 -288
WIRE -272 160 -528 160
WIRE -864 176 -864 80
WIRE -1040 224 -1248 224
WIRE -928 224 -960 224
WIRE 240 224 240 208
WIRE 320 224 320 208
WIRE 816 224 816 208
WIRE 896 224 896 208
WIRE 1440 224 1440 208
WIRE 1520 224 1520 208
WIRE 1984 224 1984 208
WIRE 2064 224 2064 208
WIRE 2608 224 2608 208
WIRE 2688 224 2688 208
WIRE 3152 224 3152 208
WIRE 3232 224 3232 208
WIRE 3776 224 3776 208
WIRE 3856 224 3856 208
WIRE 4320 224 4320 208
WIRE 4400 224 4400 208
WIRE 4944 224 4944 208
WIRE 5024 224 5024 208
WIRE 5584 224 5584 208
WIRE 5664 224 5664 208
WIRE -1248 288 -1248 224
WIRE -864 320 -864 272
WIRE 240 368 240 304
WIRE 320 368 320 304
WIRE 816 368 816 304
WIRE 896 368 896 304
WIRE 1440 368 1440 304
WIRE 1520 368 1520 304
WIRE 1984 368 1984 304
WIRE 2064 368 2064 304
WIRE 2608 368 2608 304
WIRE 2688 368 2688 304
WIRE 3152 368 3152 304
WIRE 3232 368 3232 304
WIRE 3776 368 3776 304
WIRE 3856 368 3856 304
WIRE 4320 368 4320 304
WIRE 4400 368 4400 304
WIRE 4944 368 4944 304
WIRE 5024 368 5024 304
WIRE 5584 368 5584 304
WIRE 5664 368 5664 304
FLAG 0 32 0
FLAG -1168 -96 0
FLAG -1248 368 0
FLAG -864 320 0
FLAG -2432 160 0
FLAG -3152 160 0
FLAG -1856 144 0
FLAG -1616 112 0
FLAG -2096 160 0
FLAG -2192 160 0
FLAG -1712 -128 0
FLAG -3264 160 0
FLAG -1744 112 0
FLAG 320 368 0
FLAG 240 368 0
FLAG 576 32 0
FLAG 896 368 0
FLAG 816 368 0
FLAG 1200 32 0
FLAG 1520 368 0
FLAG 1440 368 0
FLAG 1744 32 0
FLAG 2064 368 0
FLAG 1984 368 0
FLAG 2368 32 0
FLAG 2688 368 0
FLAG 2608 368 0
FLAG 2912 32 0
FLAG 3232 368 0
FLAG 3152 368 0
FLAG 3536 32 0
FLAG 3856 368 0
FLAG 3776 368 0
FLAG 4080 32 0
FLAG 4400 368 0
FLAG 4320 368 0
FLAG 4704 32 0
FLAG 5024 368 0
FLAG 4944 368 0
FLAG 5344 32 0
FLAG 5664 368 0
FLAG 5584 368 0
SYMBOL LED 224 144 R0
SYMATTR InstName D1
SYMATTR Value L1C1-RED1000000000
SYMBOL LED 304 144 R0
SYMATTR InstName D2
SYMATTR Value L1C1-GRN1000000000
SYMBOL pnp 64 -32 M180
SYMATTR InstName Q1
SYMATTR Value BC857A
SYMBOL res 112 -256 R0
SYMATTR InstName R1
SYMATTR Value 18
SYMBOL res -16 -64 R0
SYMATTR InstName R2
SYMATTR Value 3k3
SYMBOL diode -16 -176 R0
SYMATTR InstName D3
SYMBOL diode -16 -256 R0
SYMATTR InstName D4
SYMBOL voltage -1168 -192 R0
WINDOW 123 0 0 Left 0
WINDOW 39 0 0 Left 0
SYMATTR InstName V1
SYMATTR Value 5
SYMBOL res 224 208 R0
SYMATTR InstName R3
SYMATTR Value 100
SYMBOL res 304 208 R0
SYMATTR InstName R4
SYMATTR Value 120
SYMBOL pmos -576 32 M180
SYMATTR InstName M2
SYMATTR Value AO3423
SYMBOL res -880 -176 R0
SYMATTR InstName R5
SYMATTR Value 10k
SYMBOL voltage -1248 272 R0
WINDOW 123 0 0 Left 0
WINDOW 39 0 0 Left 0
SYMATTR InstName V2
SYMATTR Value PULSE(0 3.3 0 0 0 10m 20m)
SYMBOL npn -928 176 R0
SYMATTR InstName Q2
SYMATTR Value BC846B
SYMBOL res -944 208 R90
WINDOW 0 0 56 VBottom 2
WINDOW 3 32 56 VTop 2
SYMATTR InstName R6
SYMATTR Value 1k
SYMBOL res -880 -16 R0
SYMATTR InstName R7
SYMATTR Value 0
SYMBOL npn -1920 32 R0
SYMATTR InstName Q3
SYMATTR Value BC846B
SYMBOL res -1936 64 R90
WINDOW 0 0 56 VBottom 2
WINDOW 3 32 56 VTop 2
SYMATTR InstName R8
SYMATTR Value 22k
SYMBOL cap -2112 96 R0
SYMATTR InstName C1
SYMATTR Value 10n
SYMBOL zener -2416 160 R180
WINDOW 0 24 64 Left 2
WINDOW 3 24 0 Left 2
SYMATTR InstName D5
SYMATTR Value UMZ5_1N
SYMBOL voltage -3152 64 R0
WINDOW 123 0 0 Left 0
WINDOW 39 24 124 Left 2
SYMATTR SpiceLine Rser=1k
SYMATTR InstName V3
SYMATTR Value PULSE(0 10 0 0 0 6m 12m)
SYMBOL diode -2544 96 R270
WINDOW 0 32 32 VTop 2
WINDOW 3 0 32 VBottom 2
SYMATTR InstName D6
SYMBOL res -2528 64 R90
WINDOW 0 0 56 VBottom 2
WINDOW 3 32 56 VTop 2
SYMATTR InstName R9
SYMATTR Value 120k
SYMBOL res -2608 64 R90
WINDOW 0 0 56 VBottom 2
WINDOW 3 32 56 VTop 2
SYMATTR InstName R10
SYMATTR Value 120k
SYMBOL res -2688 64 R90
WINDOW 0 0 56 VBottom 2
WINDOW 3 32 56 VTop 2
SYMATTR InstName R11
SYMATTR Value 120k
SYMBOL res -2768 64 R90
WINDOW 0 0 56 VBottom 2
WINDOW 3 32 56 VTop 2
SYMATTR InstName R12
SYMATTR Value 120k
SYMBOL res -2208 64 R0
SYMATTR InstName R13
SYMATTR Value 560k
SYMBOL res -1872 -112 R0
SYMATTR InstName R14
SYMATTR Value 2k2
SYMBOL res -1600 0 R90
WINDOW 0 0 56 VBottom 2
WINDOW 3 32 56 VTop 2
SYMATTR InstName R15
SYMATTR Value 1k
SYMBOL res -1632 16 R0
SYMATTR InstName R16
SYMATTR Value 1000000
SYMBOL voltage -1712 -224 R0
WINDOW 123 0 0 Left 0
WINDOW 39 0 0 Left 0
SYMATTR InstName V4
SYMATTR Value 3.3v
SYMBOL voltage -3264 64 R0
WINDOW 123 0 0 Left 0
WINDOW 39 24 124 Left 2
SYMATTR SpiceLine Rser=1k
SYMATTR InstName V5
SYMATTR Value PULSE(0 30 100m 0 0 0.1m 0.2m 10)
SYMBOL cap -1760 32 R0
SYMATTR InstName C2
SYMATTR Value 10n
SYMBOL LED 800 144 R0
SYMATTR InstName D7
SYMATTR Value L1C1-RED1000000000
SYMBOL LED 880 144 R0
SYMATTR InstName D8
SYMATTR Value L1C1-GRN1000000000
SYMBOL pnp 640 -32 M180
SYMATTR InstName Q4
SYMATTR Value BC857A
SYMBOL res 688 -256 R0
SYMATTR InstName R17
SYMATTR Value 18
SYMBOL res 560 -64 R0
SYMATTR InstName R18
SYMATTR Value 3k3
SYMBOL diode 560 -176 R0
SYMATTR InstName D9
SYMBOL diode 560 -256 R0
SYMATTR InstName D10
SYMBOL res 800 208 R0
SYMATTR InstName R19
SYMATTR Value 100
SYMBOL res 880 208 R0
SYMATTR InstName R20
SYMATTR Value 120
SYMBOL LED 1424 144 R0
SYMATTR InstName D11
SYMATTR Value L1C1-RED1000000000
SYMBOL LED 1504 144 R0
SYMATTR InstName D12
SYMATTR Value L1C1-GRN1000000000
SYMBOL pnp 1264 -32 M180
SYMATTR InstName Q5
SYMATTR Value BC857A
SYMBOL res 1312 -256 R0
SYMATTR InstName R21
SYMATTR Value 18
SYMBOL res 1184 -64 R0
SYMATTR InstName R22
SYMATTR Value 3k3
SYMBOL diode 1184 -176 R0
SYMATTR InstName D13
SYMBOL diode 1184 -256 R0
SYMATTR InstName D14
SYMBOL res 1424 208 R0
SYMATTR InstName R23
SYMATTR Value 100
SYMBOL res 1504 208 R0
SYMATTR InstName R24
SYMATTR Value 120
SYMBOL LED 1968 144 R0
SYMATTR InstName D15
SYMATTR Value L1C1-RED1000000000
SYMBOL LED 2048 144 R0
SYMATTR InstName D16
SYMATTR Value L1C1-GRN1000000000
SYMBOL pnp 1808 -32 M180
SYMATTR InstName Q6
SYMATTR Value BC857A
SYMBOL res 1856 -256 R0
SYMATTR InstName R25
SYMATTR Value 18
SYMBOL res 1728 -64 R0
SYMATTR InstName R26
SYMATTR Value 3k3
SYMBOL diode 1728 -176 R0
SYMATTR InstName D17
SYMBOL diode 1728 -256 R0
SYMATTR InstName D18
SYMBOL res 1968 208 R0
SYMATTR InstName R27
SYMATTR Value 100
SYMBOL res 2048 208 R0
SYMATTR InstName R28
SYMATTR Value 120
SYMBOL LED 2592 144 R0
SYMATTR InstName D19
SYMATTR Value L1C1-RED1000000000
SYMBOL LED 2672 144 R0
SYMATTR InstName D20
SYMATTR Value L1C1-GRN1000000000
SYMBOL pnp 2432 -32 M180
SYMATTR InstName Q7
SYMATTR Value BC857A
SYMBOL res 2480 -256 R0
SYMATTR InstName R29
SYMATTR Value 18
SYMBOL res 2352 -64 R0
SYMATTR InstName R30
SYMATTR Value 3k3
SYMBOL diode 2352 -176 R0
SYMATTR InstName D21
SYMBOL diode 2352 -256 R0
SYMATTR InstName D22
SYMBOL res 2592 208 R0
SYMATTR InstName R31
SYMATTR Value 100
SYMBOL res 2672 208 R0
SYMATTR InstName R32
SYMATTR Value 120
SYMBOL LED 3136 144 R0
SYMATTR InstName D23
SYMATTR Value L1C1-RED1000000000
SYMBOL LED 3216 144 R0
SYMATTR InstName D24
SYMATTR Value L1C1-GRN1000000000
SYMBOL pnp 2976 -32 M180
SYMATTR InstName Q8
SYMATTR Value BC857A
SYMBOL res 3024 -256 R0
SYMATTR InstName R33
SYMATTR Value 18
SYMBOL res 2896 -64 R0
SYMATTR InstName R34
SYMATTR Value 3k3
SYMBOL diode 2896 -176 R0
SYMATTR InstName D25
SYMBOL diode 2896 -256 R0
SYMATTR InstName D26
SYMBOL res 3136 208 R0
SYMATTR InstName R35
SYMATTR Value 100
SYMBOL res 3216 208 R0
SYMATTR InstName R36
SYMATTR Value 120
SYMBOL LED 3760 144 R0
SYMATTR InstName D27
SYMATTR Value L1C1-RED1000000000
SYMBOL LED 3840 144 R0
SYMATTR InstName D28
SYMATTR Value L1C1-GRN1000000000
SYMBOL pnp 3600 -32 M180
SYMATTR InstName Q9
SYMATTR Value BC857A
SYMBOL res 3648 -256 R0
SYMATTR InstName R37
SYMATTR Value 18
SYMBOL res 3520 -64 R0
SYMATTR InstName R38
SYMATTR Value 3k3
SYMBOL diode 3520 -176 R0
SYMATTR InstName D29
SYMBOL diode 3520 -256 R0
SYMATTR InstName D30
SYMBOL res 3760 208 R0
SYMATTR InstName R39
SYMATTR Value 100
SYMBOL res 3840 208 R0
SYMATTR InstName R40
SYMATTR Value 120
SYMBOL LED 4304 144 R0
SYMATTR InstName D31
SYMATTR Value L1C1-RED1000000000
SYMBOL LED 4384 144 R0
SYMATTR InstName D32
SYMATTR Value L1C1-GRN1000000000
SYMBOL pnp 4144 -32 M180
SYMATTR InstName Q10
SYMATTR Value BC857A
SYMBOL res 4192 -256 R0
SYMATTR InstName R41
SYMATTR Value 18
SYMBOL res 4064 -64 R0
SYMATTR InstName R42
SYMATTR Value 3k3
SYMBOL diode 4064 -176 R0
SYMATTR InstName D33
SYMBOL diode 4064 -256 R0
SYMATTR InstName D34
SYMBOL res 4304 208 R0
SYMATTR InstName R43
SYMATTR Value 100
SYMBOL res 4384 208 R0
SYMATTR InstName R44
SYMATTR Value 120
SYMBOL LED 4928 144 R0
SYMATTR InstName D35
SYMATTR Value L1C1-RED1000000000
SYMBOL LED 5008 144 R0
SYMATTR InstName D36
SYMATTR Value L1C1-GRN1000000000
SYMBOL pnp 4768 -32 M180
SYMATTR InstName Q11
SYMATTR Value BC857A
SYMBOL res 4816 -256 R0
SYMATTR InstName R45
SYMATTR Value 18
SYMBOL res 4688 -64 R0
SYMATTR InstName R46
SYMATTR Value 3k3
SYMBOL diode 4688 -176 R0
SYMATTR InstName D37
SYMBOL diode 4688 -256 R0
SYMATTR InstName D38
SYMBOL res 4928 208 R0
SYMATTR InstName R47
SYMATTR Value 100
SYMBOL res 5008 208 R0
SYMATTR InstName R48
SYMATTR Value 120
SYMBOL LED 5568 144 R0
SYMATTR InstName D39
SYMATTR Value L1C1-RED1000000000
SYMBOL LED 5648 144 R0
SYMATTR InstName D40
SYMATTR Value L1C1-GRN1000000000
SYMBOL pnp 5408 -32 M180
SYMATTR InstName Q12
SYMATTR Value BC857A
SYMBOL res 5456 -256 R0
SYMATTR InstName R49
SYMATTR Value 18
SYMBOL res 5328 -64 R0
SYMATTR InstName R50
SYMATTR Value 3k3
SYMBOL diode 5328 -176 R0
SYMATTR InstName D41
SYMBOL diode 5328 -256 R0
SYMATTR InstName D42
SYMBOL res 5568 208 R0
SYMATTR InstName R51
SYMATTR Value 100
SYMBOL res 5648 208 R0
SYMATTR InstName R52
SYMATTR Value 120
TEXT -1176 504 Left 2 !.tran 1s
